<configuration>
    <input>
        <net-file value="third.net.xml"/>
        <route-files value="third.rou.xml"/>
    </input>
    <time>
        <begin value="0"/>
        <end value="1500"/>
    </time>
</configuration>
