<?xml version="1.0" encoding="UTF-8"?>

<!-- generated on 2024-08-31 13:40:40 by Eclipse SUMO netedit Version 1.20.0
<configuration xmlns:xsi="http://www.w3.org/2001/XMLSchema-instance" xsi:noNamespaceSchemaLocation="http://sumo.dlr.de/xsd/neteditConfiguration.xsd">

    <input>
        <sumo-net-file value="single.net.xml"/>
    </input>

    <output>
        <output-file value="single.net.xml"/>
    </output>

    <processing>
        <geometry.min-radius.fix.railways value="false"/>
        <geometry.max-grade.fix value="false"/>
        <offset.disable-normalization value="true"/>
        <lefthand value="0"/>
    </processing>

    <junctions>
        <no-turnarounds value="true"/>
        <junctions.corner-detail value="5"/>
        <junctions.limit-turn-speed value="5.50"/>
        <rectangular-lane-cut value="0"/>
    </junctions>

    <pedestrian>
        <walkingareas value="0"/>
    </pedestrian>

</configuration>
-->

<net version="1.20" junctionCornerDetail="5" limitTurnSpeed="5.50" xmlns:xsi="http://www.w3.org/2001/XMLSchema-instance" xsi:noNamespaceSchemaLocation="http://sumo.dlr.de/xsd/net_file.xsd">

    <location netOffset="0.00,0.00" convBoundary="100.00,100.00,400.00,300.00" origBoundary="0.00,0.00,400.00,400.00" projParameter="!"/>

    <edge id=":B1_0" function="internal">
        <lane id=":B1_0_0" index="0" speed="3.65" length="4.67" shape="100.00,101.60 98.80,100.80 98.40,100.00 98.80,99.20 100.00,98.40"/>
    </edge>
    <edge id=":C1_0" function="internal">
        <lane id=":C1_0_0" index="0" speed="13.89" length="0.10" shape="200.00,101.60 200.00,101.60"/>
    </edge>
    <edge id=":C1_1" function="internal">
        <lane id=":C1_1_0" index="0" speed="3.65" length="2.34" shape="200.00,101.60 198.80,100.80 198.40,100.00"/>
    </edge>
    <edge id=":C1_4" function="internal">
        <lane id=":C1_4_0" index="0" speed="3.65" length="2.34" shape="198.40,100.00 198.80,99.20 200.00,98.40"/>
    </edge>
    <edge id=":C1_2" function="internal">
        <lane id=":C1_2_0" index="0" speed="13.89" length="0.10" shape="200.00,98.40 200.00,98.40"/>
    </edge>
    <edge id=":C1_3" function="internal">
        <lane id=":C1_3_0" index="0" speed="3.65" length="2.34" shape="200.00,98.40 201.20,99.20 201.60,100.00"/>
    </edge>
    <edge id=":C1_5" function="internal">
        <lane id=":C1_5_0" index="0" speed="3.65" length="2.34" shape="201.60,100.00 201.20,100.80 200.00,101.60"/>
    </edge>
    <edge id=":D1_0" function="internal">
        <lane id=":D1_0_0" index="0" speed="13.89" length="0.10" shape="300.00,101.60 300.00,101.60"/>
    </edge>
    <edge id=":D1_1" function="internal">
        <lane id=":D1_1_0" index="0" speed="3.65" length="2.34" shape="300.00,101.60 298.80,100.80 298.40,100.00"/>
    </edge>
    <edge id=":D1_4" function="internal">
        <lane id=":D1_4_0" index="0" speed="3.65" length="2.34" shape="298.40,100.00 298.80,99.20 300.00,98.40"/>
    </edge>
    <edge id=":D1_2" function="internal">
        <lane id=":D1_2_0" index="0" speed="13.89" length="0.10" shape="300.00,98.40 300.00,98.40"/>
    </edge>
    <edge id=":D1_3" function="internal">
        <lane id=":D1_3_0" index="0" speed="3.65" length="2.34" shape="300.00,98.40 301.20,99.20 301.60,100.00"/>
    </edge>
    <edge id=":D1_5" function="internal">
        <lane id=":D1_5_0" index="0" speed="3.65" length="2.34" shape="301.60,100.00 301.20,100.80 300.00,101.60"/>
    </edge>
    <edge id=":E1_0" function="internal">
        <lane id=":E1_0_0" index="0" speed="3.65" length="4.67" shape="400.00,98.40 401.20,99.20 401.60,100.00 401.20,100.80 400.00,101.60"/>
    </edge>

    <edge id="B1C1" from="B1" to="C1" priority="-1">
        <lane id="B1C1_0" index="0" speed="13.89" length="100.00" shape="100.00,98.40 200.00,98.40"/>
    </edge>
    <edge id="C1B1" from="C1" to="B1" priority="-1">
        <lane id="C1B1_0" index="0" speed="13.89" length="100.00" shape="200.00,101.60 100.00,101.60"/>
    </edge>
    <edge id="C1D1" from="C1" to="D1" priority="-1">
        <lane id="C1D1_0" index="0" speed="13.89" length="100.00" shape="200.00,98.40 300.00,98.40"/>
    </edge>
    <edge id="D1C1" from="D1" to="C1" priority="-1">
        <lane id="D1C1_0" index="0" speed="13.89" length="100.00" shape="300.00,101.60 200.00,101.60"/>
    </edge>
    <edge id="D1E1" from="D1" to="E1" priority="-1">
        <lane id="D1E1_0" index="0" speed="13.89" length="100.00" shape="300.00,98.40 400.00,98.40"/>
    </edge>
    <edge id="E1D1" from="E1" to="D1" priority="-1">
        <lane id="E1D1_0" index="0" speed="13.89" length="100.00" shape="400.00,101.60 300.00,101.60"/>
    </edge>

    <junction id="B1" type="priority" x="100.00" y="100.00" incLanes="C1B1_0" intLanes=":B1_0_0" shape="100.00,100.00 100.00,103.20 100.00,100.00">
        <request index="0" response="0" foes="0" cont="0"/>
    </junction>
    <junction id="C1" type="priority" x="200.00" y="100.00" incLanes="D1C1_0 B1C1_0" intLanes=":C1_0_0 :C1_4_0 :C1_2_0 :C1_5_0" shape="200.00,103.20 200.00,96.80 200.00,103.20">
        <request index="0" response="0000" foes="1000" cont="0"/>
        <request index="1" response="0100" foes="0100" cont="1"/>
        <request index="2" response="0000" foes="0010" cont="0"/>
        <request index="3" response="0001" foes="0001" cont="1"/>
    </junction>
    <junction id="D1" type="priority" x="300.00" y="100.00" incLanes="E1D1_0 C1D1_0" intLanes=":D1_0_0 :D1_4_0 :D1_2_0 :D1_5_0" shape="300.00,103.20 300.00,96.80 300.00,103.20">
        <request index="0" response="0000" foes="1000" cont="0"/>
        <request index="1" response="0100" foes="0100" cont="1"/>
        <request index="2" response="0000" foes="0010" cont="0"/>
        <request index="3" response="0001" foes="0001" cont="1"/>
    </junction>
    <junction id="E1" type="priority" x="400.00" y="100.00" incLanes="D1E1_0" intLanes=":E1_0_0" shape="400.00,100.00 400.00,96.80 400.00,100.00">
        <request index="0" response="0" foes="0" cont="0"/>
    </junction>
    <junction id="E3" type="dead_end" x="400.00" y="300.00" incLanes="" intLanes="" shape="400.00,300.00"/>

    <junction id=":C1_4_0" type="internal" x="198.40" y="100.00" incLanes=":C1_1_0 B1C1_0" intLanes=":C1_2_0"/>
    <junction id=":C1_5_0" type="internal" x="201.60" y="100.00" incLanes=":C1_3_0 D1C1_0" intLanes=":C1_0_0"/>
    <junction id=":D1_4_0" type="internal" x="298.40" y="100.00" incLanes=":D1_1_0 C1D1_0" intLanes=":D1_2_0"/>
    <junction id=":D1_5_0" type="internal" x="301.60" y="100.00" incLanes=":D1_3_0 E1D1_0" intLanes=":D1_0_0"/>

    <connection from="B1C1" to="C1D1" fromLane="0" toLane="0" keepClear="0" via=":C1_2_0" dir="s" state="M"/>
    <connection from="B1C1" to="C1B1" fromLane="0" toLane="0" via=":C1_3_0" dir="t" state="m"/>
    <connection from="C1B1" to="B1C1" fromLane="0" toLane="0" via=":B1_0_0" dir="t" state="M"/>
    <connection from="C1D1" to="D1E1" fromLane="0" toLane="0" keepClear="0" via=":D1_2_0" dir="s" state="M"/>
    <connection from="C1D1" to="D1C1" fromLane="0" toLane="0" via=":D1_3_0" dir="t" state="m"/>
    <connection from="D1C1" to="C1B1" fromLane="0" toLane="0" keepClear="0" via=":C1_0_0" dir="s" state="M"/>
    <connection from="D1C1" to="C1D1" fromLane="0" toLane="0" via=":C1_1_0" dir="t" state="m"/>
    <connection from="D1E1" to="E1D1" fromLane="0" toLane="0" via=":E1_0_0" dir="t" state="M"/>
    <connection from="E1D1" to="D1C1" fromLane="0" toLane="0" keepClear="0" via=":D1_0_0" dir="s" state="M"/>
    <connection from="E1D1" to="D1E1" fromLane="0" toLane="0" via=":D1_1_0" dir="t" state="m"/>

    <connection from=":B1_0" to="B1C1" fromLane="0" toLane="0" dir="t" state="M"/>
    <connection from=":C1_0" to="C1B1" fromLane="0" toLane="0" dir="s" state="M"/>
    <connection from=":C1_1" to="C1D1" fromLane="0" toLane="0" via=":C1_4_0" dir="t" state="m"/>
    <connection from=":C1_4" to="C1D1" fromLane="0" toLane="0" dir="t" state="M"/>
    <connection from=":C1_2" to="C1D1" fromLane="0" toLane="0" dir="s" state="M"/>
    <connection from=":C1_3" to="C1B1" fromLane="0" toLane="0" via=":C1_5_0" dir="t" state="m"/>
    <connection from=":C1_5" to="C1B1" fromLane="0" toLane="0" dir="t" state="M"/>
    <connection from=":D1_0" to="D1C1" fromLane="0" toLane="0" dir="s" state="M"/>
    <connection from=":D1_1" to="D1E1" fromLane="0" toLane="0" via=":D1_4_0" dir="t" state="m"/>
    <connection from=":D1_4" to="D1E1" fromLane="0" toLane="0" dir="t" state="M"/>
    <connection from=":D1_2" to="D1E1" fromLane="0" toLane="0" dir="s" state="M"/>
    <connection from=":D1_3" to="D1C1" fromLane="0" toLane="0" via=":D1_5_0" dir="t" state="m"/>
    <connection from=":D1_5" to="D1C1" fromLane="0" toLane="0" dir="t" state="M"/>
    <connection from=":E1_0" to="E1D1" fromLane="0" toLane="0" dir="t" state="M"/>

</net>
